<?xml version="1.0"?>
<!-- 
194 Cars leaving the Computer Science Building and campus of the University of Erlangen-Nuremberg
Copyright (C) 2008 Christoph Sommer <christoph.sommer@informatik.uni-erlangen.de>
Licensed under the Creative Commons Attribution-ShareAlike 2.0 license <http://creativecommons.org/licenses/by-sa/2.0/>
-->


<routes>
   	<vType id="vtypeauto" accel="2.5" decel="6.0" sigma="0.5" length="4" minGap="0" maxSpeed="41" color="1,1,0">
		<carFollowing-CC tauEngine="0.5" omegaN="0.2" xi="1" c1="0.5" decel="9" lanesCount="1" ccAccel="1.5"/>
	</vType>
	
	<route id="route0" edges="-39539626 -5445204#2 -5445204#1 113939244#2 -126606716 23339459 30405358#1 85355912 85355911#0 85355911#1 30405356 5931612 30350450#0 30350450#1 30350450#2 4006702#0 4006702#1 4900043 4900041#1"/>
	
	<flow id="flow0" type="vtypeauto" route="route0" begin="0" period="1" number="4" />
</routes>
